# generated using pymatgen
data_Li20.056Ge2P4S24
_symmetry_space_group_name_H-M   'P 1'
_cell_length_a   8.71900000
_cell_length_b   8.71900000
_cell_length_c   12.63900000
_cell_angle_alpha   90.00000000
_cell_angle_beta   90.00000000
_cell_angle_gamma   90.00000000
_symmetry_Int_Tables_number   1
_chemical_formula_structural   Li20.056Ge2P4S24
_chemical_formula_sum   'Li20.056 Ge2 P4 S24'
_cell_volume   960.82892608
_cell_formula_units_Z   1
loop_
 _symmetry_equiv_pos_site_id
 _symmetry_equiv_pos_as_xyz
  1  'x, y, z'
loop_
 _atom_type_symbol
 _atom_type_oxidation_number
  Li+  1.0
  Ge4+  4.0
  P5+  5.0
  S2-  -2.0
loop_
 _atom_site_type_symbol
 _atom_site_label
 _atom_site_symmetry_multiplicity
 _atom_site_fract_x
 _atom_site_fract_y
 _atom_site_fract_z
 _atom_site_occupancy
  Li+  Li1  1  0.227000  0.233000  0.694000  0.466
  Li+  Li2  1  0.773000  0.767000  0.694000  0.466
  Li+  Li3  1  0.727000  0.733000  0.806000  0.466
  Li+  Li4  1  0.273000  0.267000  0.806000  0.466
  Li+  Li5  1  0.773000  0.233000  0.694000  0.466
  Li+  Li6  1  0.227000  0.767000  0.694000  0.466
  Li+  Li7  1  0.273000  0.733000  0.806000  0.466
  Li+  Li8  1  0.727000  0.267000  0.806000  0.466
  Li+  Li9  1  0.767000  0.227000  0.306000  0.466
  Li+  Li10  1  0.233000  0.773000  0.306000  0.466
  Li+  Li11  1  0.267000  0.727000  0.194000  0.466
  Li+  Li12  1  0.733000  0.273000  0.194000  0.466
  Li+  Li13  1  0.233000  0.227000  0.306000  0.466
  Li+  Li14  1  0.767000  0.773000  0.306000  0.466
  Li+  Li15  1  0.733000  0.727000  0.194000  0.466
  Li+  Li16  1  0.267000  0.273000  0.194000  0.466
  Li+  Li17  1  0.252000  0.252000  0.500000  0.74
  Li+  Li18  1  0.748000  0.748000  0.500000  0.74
  Li+  Li19  1  0.752000  0.752000  0.000000  0.74
  Li+  Li20  1  0.248000  0.248000  0.000000  0.74
  Li+  Li21  1  0.748000  0.252000  0.500000  0.74
  Li+  Li22  1  0.252000  0.748000  0.500000  0.74
  Li+  Li23  1  0.248000  0.752000  0.000000  0.74
  Li+  Li24  1  0.752000  0.248000  0.000000  0.74
  Li+  Li25  1  0.500000  0.500000  0.751000  0.81
  Li+  Li26  1  0.000000  0.000000  0.749000  0.81
  Li+  Li27  1  0.500000  0.500000  0.249000  0.81
  Li+  Li28  1  0.000000  0.000000  0.251000  0.81
  Li+  Li29  1  0.000000  0.500000  0.445400  0.86
  Li+  Li30  1  0.500000  0.000000  0.054600  0.86
  Li+  Li31  1  0.500000  0.000000  0.554600  0.86
  Li+  Li32  1  0.000000  0.500000  0.945400  0.86
  Ge4+  Ge33  1  0.000000  0.500000  0.191540  0.5
  P5+  P34  1  0.000000  0.500000  0.191540  0.5
  Ge4+  Ge35  1  0.500000  0.000000  0.308460  0.5
  P5+  P36  1  0.500000  0.000000  0.308460  0.5
  Ge4+  Ge37  1  0.500000  0.000000  0.808460  0.5
  P5+  P38  1  0.500000  0.000000  0.808460  0.5
  Ge4+  Ge39  1  0.000000  0.500000  0.691540  0.5
  P5+  P40  1  0.000000  0.500000  0.691540  0.5
  P5+  P41  1  0.500000  0.500000  0.000000  1.0
  P5+  P42  1  0.000000  0.000000  0.500000  1.0
  S2-  S43  1  0.311430  0.500000  0.907070  1.0
  S2-  S44  1  0.688570  0.500000  0.907070  1.0
  S2-  S45  1  0.811430  0.000000  0.592930  1.0
  S2-  S46  1  0.188570  0.000000  0.592930  1.0
  S2-  S47  1  0.500000  0.311430  0.092930  1.0
  S2-  S48  1  0.500000  0.688570  0.092930  1.0
  S2-  S49  1  0.000000  0.811430  0.407070  1.0
  S2-  S50  1  0.000000  0.188570  0.407070  1.0
  S2-  S51  1  0.204430  0.500000  0.597270  1.0
  S2-  S52  1  0.795570  0.500000  0.597270  1.0
  S2-  S53  1  0.704430  0.000000  0.902730  1.0
  S2-  S54  1  0.295570  0.000000  0.902730  1.0
  S2-  S55  1  0.500000  0.204430  0.402730  1.0
  S2-  S56  1  0.500000  0.795570  0.402730  1.0
  S2-  S57  1  0.000000  0.704430  0.097270  1.0
  S2-  S58  1  0.000000  0.295570  0.097270  1.0
  S2-  S59  1  0.800990  0.500000  0.291680  1.0
  S2-  S60  1  0.199010  0.500000  0.291680  1.0
  S2-  S61  1  0.300990  0.000000  0.208320  1.0
  S2-  S62  1  0.699010  0.000000  0.208320  1.0
  S2-  S63  1  0.500000  0.800990  0.708320  1.0
  S2-  S64  1  0.500000  0.199010  0.708320  1.0
  S2-  S65  1  0.000000  0.300990  0.791680  1.0
  S2-  S66  1  0.000000  0.699010  0.791680  1.0
