# generated using pymatgen
data_Li56.064La24Zr16O96
_symmetry_space_group_name_H-M   'P 1'
_cell_length_a   12.98270000
_cell_length_b   12.98270000
_cell_length_c   12.98270000
_cell_angle_alpha   90.00000000
_cell_angle_beta   90.00000000
_cell_angle_gamma   90.00000000
_symmetry_Int_Tables_number   1
_chemical_formula_structural   Li56.064La24Zr16O96
_chemical_formula_sum   'Li56.064 La24 Zr16 O96'
_cell_volume   2188.24056713
_cell_formula_units_Z   1
loop_
 _symmetry_equiv_pos_site_id
 _symmetry_equiv_pos_as_xyz
  1  'x, y, z'
loop_
 _atom_type_symbol
 _atom_type_oxidation_number
  Li+  1.0
  La3+  3.0
  Zr4+  4.0
  O2-  -2.0
loop_
 _atom_site_type_symbol
 _atom_site_label
 _atom_site_symmetry_multiplicity
 _atom_site_fract_x
 _atom_site_fract_y
 _atom_site_fract_z
 _atom_site_occupancy
  Li+  Li1  1  0.500000  0.250000  0.125000  0.94
  Li+  Li2  1  0.000000  0.750000  0.625000  0.94
  Li+  Li3  1  0.500000  0.750000  0.375000  0.94
  Li+  Li4  1  0.000000  0.250000  0.875000  0.94
  Li+  Li5  1  0.250000  0.125000  0.500000  0.94
  Li+  Li6  1  0.750000  0.625000  0.000000  0.94
  Li+  Li7  1  0.750000  0.375000  0.500000  0.94
  Li+  Li8  1  0.250000  0.875000  0.000000  0.94
  Li+  Li9  1  0.125000  0.500000  0.250000  0.94
  Li+  Li10  1  0.625000  0.000000  0.750000  0.94
  Li+  Li11  1  0.375000  0.500000  0.750000  0.94
  Li+  Li12  1  0.875000  0.000000  0.250000  0.94
  Li+  Li13  1  0.000000  0.250000  0.375000  0.94
  Li+  Li14  1  0.500000  0.750000  0.875000  0.94
  Li+  Li15  1  0.000000  0.750000  0.125000  0.94
  Li+  Li16  1  0.500000  0.250000  0.625000  0.94
  Li+  Li17  1  0.250000  0.375000  0.000000  0.94
  Li+  Li18  1  0.750000  0.875000  0.500000  0.94
  Li+  Li19  1  0.750000  0.125000  0.000000  0.94
  Li+  Li20  1  0.250000  0.625000  0.500000  0.94
  Li+  Li21  1  0.375000  0.000000  0.250000  0.94
  Li+  Li22  1  0.875000  0.500000  0.750000  0.94
  Li+  Li23  1  0.125000  0.000000  0.750000  0.94
  Li+  Li24  1  0.625000  0.500000  0.250000  0.94
  Li+  Li25  1  0.176900  0.942200  0.845900  0.349
  Li+  Li26  1  0.323100  0.057800  0.345900  0.349
  Li+  Li27  1  0.823100  0.442200  0.654100  0.349
  Li+  Li28  1  0.676900  0.557800  0.154100  0.349
  Li+  Li29  1  0.942200  0.845900  0.176900  0.349
  Li+  Li30  1  0.057800  0.345900  0.323100  0.349
  Li+  Li31  1  0.442200  0.654100  0.823100  0.349
  Li+  Li32  1  0.557800  0.154100  0.676900  0.349
  Li+  Li33  1  0.845900  0.176900  0.942200  0.349
  Li+  Li34  1  0.345900  0.323100  0.057800  0.349
  Li+  Li35  1  0.654100  0.823100  0.442200  0.349
  Li+  Li36  1  0.154100  0.676900  0.557800  0.349
  Li+  Li37  1  0.323100  0.557800  0.654100  0.349
  Li+  Li38  1  0.176900  0.442200  0.154100  0.349
  Li+  Li39  1  0.676900  0.057800  0.845900  0.349
  Li+  Li40  1  0.823100  0.942200  0.345900  0.349
  Li+  Li41  1  0.557800  0.654100  0.323100  0.349
  Li+  Li42  1  0.442200  0.154100  0.176900  0.349
  Li+  Li43  1  0.057800  0.845900  0.676900  0.349
  Li+  Li44  1  0.942200  0.345900  0.823100  0.349
  Li+  Li45  1  0.654100  0.323100  0.557800  0.349
  Li+  Li46  1  0.154100  0.176900  0.442200  0.349
  Li+  Li47  1  0.845900  0.676900  0.057800  0.349
  Li+  Li48  1  0.345900  0.823100  0.942200  0.349
  Li+  Li49  1  0.926900  0.595900  0.692200  0.349
  Li+  Li50  1  0.073100  0.095900  0.807800  0.349
  Li+  Li51  1  0.573100  0.404100  0.192200  0.349
  Li+  Li52  1  0.426900  0.904100  0.307800  0.349
  Li+  Li53  1  0.692200  0.926900  0.595900  0.349
  Li+  Li54  1  0.807800  0.073100  0.095900  0.349
  Li+  Li55  1  0.192200  0.573100  0.404100  0.349
  Li+  Li56  1  0.307800  0.426900  0.904100  0.349
  Li+  Li57  1  0.595900  0.692200  0.926900  0.349
  Li+  Li58  1  0.095900  0.807800  0.073100  0.349
  Li+  Li59  1  0.404100  0.192200  0.573100  0.349
  Li+  Li60  1  0.904100  0.307800  0.426900  0.349
  Li+  Li61  1  0.073100  0.404100  0.307800  0.349
  Li+  Li62  1  0.926900  0.904100  0.192200  0.349
  Li+  Li63  1  0.426900  0.595900  0.807800  0.349
  Li+  Li64  1  0.573100  0.095900  0.692200  0.349
  Li+  Li65  1  0.307800  0.073100  0.404100  0.349
  Li+  Li66  1  0.192200  0.926900  0.904100  0.349
  Li+  Li67  1  0.807800  0.426900  0.595900  0.349
  Li+  Li68  1  0.692200  0.573100  0.095900  0.349
  Li+  Li69  1  0.404100  0.307800  0.073100  0.349
  Li+  Li70  1  0.904100  0.192200  0.926900  0.349
  Li+  Li71  1  0.595900  0.807800  0.426900  0.349
  Li+  Li72  1  0.095900  0.692200  0.573100  0.349
  Li+  Li73  1  0.676900  0.442200  0.345900  0.349
  Li+  Li74  1  0.823100  0.557800  0.845900  0.349
  Li+  Li75  1  0.323100  0.942200  0.154100  0.349
  Li+  Li76  1  0.176900  0.057800  0.654100  0.349
  Li+  Li77  1  0.442200  0.345900  0.676900  0.349
  Li+  Li78  1  0.557800  0.845900  0.823100  0.349
  Li+  Li79  1  0.942200  0.154100  0.323100  0.349
  Li+  Li80  1  0.057800  0.654100  0.176900  0.349
  Li+  Li81  1  0.345900  0.676900  0.442200  0.349
  Li+  Li82  1  0.845900  0.823100  0.557800  0.349
  Li+  Li83  1  0.154100  0.323100  0.942200  0.349
  Li+  Li84  1  0.654100  0.176900  0.057800  0.349
  Li+  Li85  1  0.823100  0.057800  0.154100  0.349
  Li+  Li86  1  0.676900  0.942200  0.654100  0.349
  Li+  Li87  1  0.176900  0.557800  0.345900  0.349
  Li+  Li88  1  0.323100  0.442200  0.845900  0.349
  Li+  Li89  1  0.057800  0.154100  0.823100  0.349
  Li+  Li90  1  0.942200  0.654100  0.676900  0.349
  Li+  Li91  1  0.557800  0.345900  0.176900  0.349
  Li+  Li92  1  0.442200  0.845900  0.323100  0.349
  Li+  Li93  1  0.154100  0.823100  0.057800  0.349
  Li+  Li94  1  0.654100  0.676900  0.942200  0.349
  Li+  Li95  1  0.345900  0.176900  0.557800  0.349
  Li+  Li96  1  0.845900  0.323100  0.442200  0.349
  Li+  Li97  1  0.426900  0.095900  0.192200  0.349
  Li+  Li98  1  0.573100  0.595900  0.307800  0.349
  Li+  Li99  1  0.073100  0.904100  0.692200  0.349
  Li+  Li100  1  0.926900  0.404100  0.807800  0.349
  Li+  Li101  1  0.192200  0.426900  0.095900  0.349
  Li+  Li102  1  0.307800  0.573100  0.595900  0.349
  Li+  Li103  1  0.692200  0.073100  0.904100  0.349
  Li+  Li104  1  0.807800  0.926900  0.404100  0.349
  Li+  Li105  1  0.095900  0.192200  0.426900  0.349
  Li+  Li106  1  0.595900  0.307800  0.573100  0.349
  Li+  Li107  1  0.904100  0.692200  0.073100  0.349
  Li+  Li108  1  0.404100  0.807800  0.926900  0.349
  Li+  Li109  1  0.573100  0.904100  0.807800  0.349
  Li+  Li110  1  0.426900  0.404100  0.692200  0.349
  Li+  Li111  1  0.926900  0.095900  0.307800  0.349
  Li+  Li112  1  0.073100  0.595900  0.192200  0.349
  Li+  Li113  1  0.807800  0.573100  0.904100  0.349
  Li+  Li114  1  0.692200  0.426900  0.404100  0.349
  Li+  Li115  1  0.307800  0.926900  0.095900  0.349
  Li+  Li116  1  0.192200  0.073100  0.595900  0.349
  Li+  Li117  1  0.904100  0.807800  0.573100  0.349
  Li+  Li118  1  0.404100  0.692200  0.426900  0.349
  Li+  Li119  1  0.095900  0.307800  0.926900  0.349
  Li+  Li120  1  0.595900  0.192200  0.073100  0.349
  La3+  La121  1  0.500000  0.250000  0.875000  1.0
  La3+  La122  1  0.000000  0.750000  0.375000  1.0
  La3+  La123  1  0.500000  0.750000  0.625000  1.0
  La3+  La124  1  0.000000  0.250000  0.125000  1.0
  La3+  La125  1  0.250000  0.875000  0.500000  1.0
  La3+  La126  1  0.750000  0.375000  0.000000  1.0
  La3+  La127  1  0.750000  0.625000  0.500000  1.0
  La3+  La128  1  0.250000  0.125000  0.000000  1.0
  La3+  La129  1  0.875000  0.500000  0.250000  1.0
  La3+  La130  1  0.375000  0.000000  0.750000  1.0
  La3+  La131  1  0.625000  0.500000  0.750000  1.0
  La3+  La132  1  0.125000  0.000000  0.250000  1.0
  La3+  La133  1  0.000000  0.250000  0.625000  1.0
  La3+  La134  1  0.500000  0.750000  0.125000  1.0
  La3+  La135  1  0.000000  0.750000  0.875000  1.0
  La3+  La136  1  0.500000  0.250000  0.375000  1.0
  La3+  La137  1  0.250000  0.625000  0.000000  1.0
  La3+  La138  1  0.750000  0.125000  0.500000  1.0
  La3+  La139  1  0.750000  0.875000  0.000000  1.0
  La3+  La140  1  0.250000  0.375000  0.500000  1.0
  La3+  La141  1  0.625000  0.000000  0.250000  1.0
  La3+  La142  1  0.125000  0.500000  0.750000  1.0
  La3+  La143  1  0.875000  0.000000  0.750000  1.0
  La3+  La144  1  0.375000  0.500000  0.250000  1.0
  Zr4+  Zr145  1  0.750000  0.250000  0.750000  1.0
  Zr4+  Zr146  1  0.750000  0.750000  0.250000  1.0
  Zr4+  Zr147  1  0.250000  0.750000  0.750000  1.0
  Zr4+  Zr148  1  0.250000  0.250000  0.250000  1.0
  Zr4+  Zr149  1  0.500000  0.500000  0.000000  1.0
  Zr4+  Zr150  1  0.500000  0.000000  0.500000  1.0
  Zr4+  Zr151  1  0.000000  0.500000  0.500000  1.0
  Zr4+  Zr152  1  0.000000  0.000000  0.000000  1.0
  Zr4+  Zr153  1  0.250000  0.750000  0.250000  1.0
  Zr4+  Zr154  1  0.250000  0.250000  0.750000  1.0
  Zr4+  Zr155  1  0.750000  0.250000  0.250000  1.0
  Zr4+  Zr156  1  0.750000  0.750000  0.750000  1.0
  Zr4+  Zr157  1  0.000000  0.000000  0.500000  1.0
  Zr4+  Zr158  1  0.000000  0.500000  0.000000  1.0
  Zr4+  Zr159  1  0.500000  0.000000  0.000000  1.0
  Zr4+  Zr160  1  0.500000  0.500000  0.500000  1.0
  O2-  O161  1  0.599900  0.303800  0.718370  1.0
  O2-  O162  1  0.900100  0.696200  0.218370  1.0
  O2-  O163  1  0.400100  0.803800  0.781630  1.0
  O2-  O164  1  0.099900  0.196200  0.281630  1.0
  O2-  O165  1  0.303800  0.718370  0.599900  1.0
  O2-  O166  1  0.696200  0.218370  0.900100  1.0
  O2-  O167  1  0.803800  0.781630  0.400100  1.0
  O2-  O168  1  0.196200  0.281630  0.099900  1.0
  O2-  O169  1  0.718370  0.599900  0.303800  1.0
  O2-  O170  1  0.218370  0.900100  0.696200  1.0
  O2-  O171  1  0.781630  0.400100  0.803800  1.0
  O2-  O172  1  0.281630  0.099900  0.196200  1.0
  O2-  O173  1  0.900100  0.196200  0.781630  1.0
  O2-  O174  1  0.599900  0.803800  0.281630  1.0
  O2-  O175  1  0.099900  0.696200  0.718370  1.0
  O2-  O176  1  0.400100  0.303800  0.218370  1.0
  O2-  O177  1  0.196200  0.781630  0.900100  1.0
  O2-  O178  1  0.803800  0.281630  0.599900  1.0
  O2-  O179  1  0.696200  0.718370  0.099900  1.0
  O2-  O180  1  0.303800  0.218370  0.400100  1.0
  O2-  O181  1  0.781630  0.900100  0.196200  1.0
  O2-  O182  1  0.281630  0.599900  0.803800  1.0
  O2-  O183  1  0.718370  0.099900  0.696200  1.0
  O2-  O184  1  0.218370  0.400100  0.303800  1.0
  O2-  O185  1  0.349900  0.468370  0.053800  1.0
  O2-  O186  1  0.650100  0.968370  0.446200  1.0
  O2-  O187  1  0.150100  0.531630  0.553800  1.0
  O2-  O188  1  0.849900  0.031630  0.946200  1.0
  O2-  O189  1  0.053800  0.349900  0.468370  1.0
  O2-  O190  1  0.446200  0.650100  0.968370  1.0
  O2-  O191  1  0.553800  0.150100  0.531630  1.0
  O2-  O192  1  0.946200  0.849900  0.031630  1.0
  O2-  O193  1  0.468370  0.053800  0.349900  1.0
  O2-  O194  1  0.968370  0.446200  0.650100  1.0
  O2-  O195  1  0.531630  0.553800  0.150100  1.0
  O2-  O196  1  0.031630  0.946200  0.849900  1.0
  O2-  O197  1  0.650100  0.531630  0.946200  1.0
  O2-  O198  1  0.349900  0.031630  0.553800  1.0
  O2-  O199  1  0.849900  0.468370  0.446200  1.0
  O2-  O200  1  0.150100  0.968370  0.053800  1.0
  O2-  O201  1  0.946200  0.650100  0.531630  1.0
  O2-  O202  1  0.553800  0.349900  0.031630  1.0
  O2-  O203  1  0.446200  0.849900  0.468370  1.0
  O2-  O204  1  0.053800  0.150100  0.968370  1.0
  O2-  O205  1  0.531630  0.946200  0.650100  1.0
  O2-  O206  1  0.031630  0.553800  0.349900  1.0
  O2-  O207  1  0.468370  0.446200  0.849900  1.0
  O2-  O208  1  0.968370  0.053800  0.150100  1.0
  O2-  O209  1  0.099900  0.803800  0.218370  1.0
  O2-  O210  1  0.400100  0.196200  0.718370  1.0
  O2-  O211  1  0.900100  0.303800  0.281630  1.0
  O2-  O212  1  0.599900  0.696200  0.781630  1.0
  O2-  O213  1  0.803800  0.218370  0.099900  1.0
  O2-  O214  1  0.196200  0.718370  0.400100  1.0
  O2-  O215  1  0.303800  0.281630  0.900100  1.0
  O2-  O216  1  0.696200  0.781630  0.599900  1.0
  O2-  O217  1  0.218370  0.099900  0.803800  1.0
  O2-  O218  1  0.718370  0.400100  0.196200  1.0
  O2-  O219  1  0.281630  0.900100  0.303800  1.0
  O2-  O220  1  0.781630  0.599900  0.696200  1.0
  O2-  O221  1  0.400100  0.696200  0.281630  1.0
  O2-  O222  1  0.099900  0.303800  0.781630  1.0
  O2-  O223  1  0.599900  0.196200  0.218370  1.0
  O2-  O224  1  0.900100  0.803800  0.718370  1.0
  O2-  O225  1  0.696200  0.281630  0.400100  1.0
  O2-  O226  1  0.303800  0.781630  0.099900  1.0
  O2-  O227  1  0.196200  0.218370  0.599900  1.0
  O2-  O228  1  0.803800  0.718370  0.900100  1.0
  O2-  O229  1  0.281630  0.400100  0.696200  1.0
  O2-  O230  1  0.781630  0.099900  0.303800  1.0
  O2-  O231  1  0.218370  0.599900  0.196200  1.0
  O2-  O232  1  0.718370  0.900100  0.803800  1.0
  O2-  O233  1  0.849900  0.968370  0.553800  1.0
  O2-  O234  1  0.150100  0.468370  0.946200  1.0
  O2-  O235  1  0.650100  0.031630  0.053800  1.0
  O2-  O236  1  0.349900  0.531630  0.446200  1.0
  O2-  O237  1  0.553800  0.849900  0.968370  1.0
  O2-  O238  1  0.946200  0.150100  0.468370  1.0
  O2-  O239  1  0.053800  0.650100  0.031630  1.0
  O2-  O240  1  0.446200  0.349900  0.531630  1.0
  O2-  O241  1  0.968370  0.553800  0.849900  1.0
  O2-  O242  1  0.468370  0.946200  0.150100  1.0
  O2-  O243  1  0.031630  0.053800  0.650100  1.0
  O2-  O244  1  0.531630  0.446200  0.349900  1.0
  O2-  O245  1  0.150100  0.031630  0.446200  1.0
  O2-  O246  1  0.849900  0.531630  0.053800  1.0
  O2-  O247  1  0.349900  0.968370  0.946200  1.0
  O2-  O248  1  0.650100  0.468370  0.553800  1.0
  O2-  O249  1  0.446200  0.150100  0.031630  1.0
  O2-  O250  1  0.053800  0.849900  0.531630  1.0
  O2-  O251  1  0.946200  0.349900  0.968370  1.0
  O2-  O252  1  0.553800  0.650100  0.468370  1.0
  O2-  O253  1  0.031630  0.446200  0.150100  1.0
  O2-  O254  1  0.531630  0.053800  0.849900  1.0
  O2-  O255  1  0.968370  0.946200  0.349900  1.0
  O2-  O256  1  0.468370  0.553800  0.650100  1.0
